L24/1726522/Linhas.dss
! ==========================================================
! LINHAS — geradas de SSDMT
! Barras = PAC_1 / PAC_2 da BDGD (preservados)
! ==========================================================
New Line.246949326 Bus1=node_440710191.1.2.3 Bus2=node_440710192.1.2.3 LineCode=CND_10_3F Length=31.95 Units=m
New Line.246195356 Bus1=node_437386685.1.2.3 Bus2=node_437386686.1.2.3 LineCode=CND_19_3F Length=21.56 Units=m
New Line.246195488 Bus1=node_437589163.1.2.3 Bus2=node_437589164.1.2.3 LineCode=CND_31_3F Length=34.58 Units=m
New Line.246950715 Bus1=node_441017425.1.2.3 Bus2=node_441017269.1.2.3 LineCode=CND_20_3F Length=29.21 Units=m
New Line.246950106 Bus1=node_440710272.1.2.3 Bus2=node_440710096.1.2.3 LineCode=CND_50_3F Length=23.08 Units=m
New Line.300453474 Bus1=node_505648986.1.2.3 Bus2=node_435185202.1.2.3 LineCode=CND_2388_3F Length=4.67 Units=m
New Line.2251117295 Bus1=node_2477404915.1.2.3 Bus2=node_2477405426.1.2.3 LineCode=CND_20_3F Length=40.92 Units=m
New Line.2019498502 Bus1=node_2336696765.3 Bus2=node_2336696750.3 LineCode=CND_911_1F Length=46.44 Units=m
New Line.246950289 Bus1=node_441015594.1.2.3 Bus2=node_441015595.1.2.3 LineCode=CND_4_3F Length=36.91 Units=m
New Line.980333193 Bus1=node_1242396132.1.2.3 Bus2=node_1242396143.1.2.3 LineCode=CND_10_3F Length=40.76 Units=m
New Line.246948731 Bus1=node_440707216.1.2.3 Bus2=node_440707217.1.2.3 LineCode=CND_10_3F Length=36.50 Units=m
New Line.244988043 Bus1=node_431323798.1.2.3 Bus2=node_431323799.1.2.3 LineCode=CND_20_3F Length=30.32 Units=m
New Line.243590478 Bus1=node_424069097.1.2.3 Bus2=node_424069098.1.2.3 LineCode=CND_271_3F Length=29.09 Units=m
New Line.244986545 Bus1=node_430946979.1.2.3 Bus2=node_428538507.1.2.3 LineCode=CND_3_3F Length=18.59 Units=m
New Line.246948286 Bus1=node_440550393.1.2.3 Bus2=node_440550242.1.2.3 LineCode=CND_50_3F Length=38.69 Units=m
New Line.246414009 Bus1=node_438402697.1.2.3 Bus2=node_431155147.1.2.3 LineCode=CND_20_3F Length=7.33 Units=m
New Line.244489613 Bus1=node_428539452.1.2.3 Bus2=node_428539453.1.2.3 LineCode=CND_19_3F Length=28.93 Units=m
New Line.246951025 Bus1=node_441019274.1.2.3 Bus2=node_441018804.1.2.3 LineCode=CND_50_3F Length=35.29 Units=m
New Line.246948972 Bus1=node_440708421.1.2.3 Bus2=node_440708422.1.2.3 LineCode=CND_10_3F Length=37.24 Units=m
New Line.246413726 Bus1=node_438401233.1.2.3 Bus2=node_438401237.1.2.3 LineCode=CND_20_3F Length=30.10 Units=m
New Line.246948876 Bus1=node_440707747.1.2.3 Bus2=node_440707911.1.2.3 LineCode=CND_4_3F Length=28.89 Units=m
New Line.2697422786 Bus1=node_428705602.1.2.3 Bus2=node_428706062.1.2.3 LineCode=CND_3_3F Length=24.97 Units=m
New Line.246949657 Bus1=node_440866426.3 Bus2=node_440707011.3 LineCode=CND_909_1F Length=31.15 Units=m
New Line.2706018823 Bus1=node_440551257.1.2.3 Bus2=node_440551247.1.2.3 LineCode=CND_10_3F Length=28.25 Units=m
New Line.246195797 Bus1=node_437590663.1.2.3 Bus2=node_437590702.1.2.3 LineCode=CND_19_3F Length=33.10 Units=m
New Line.244491008 Bus1=node_428881383.1.2.3 Bus2=node_428881384.1.2.3 LineCode=CND_19_3F Length=33.28 Units=m
New Line.2540094551 Bus1=node_441016815.1.2.3 Bus2=node_441017925.1.2.3 LineCode=CND_10_3F Length=26.98 Units=m
New Line.243590440 Bus1=node_424068907.1.2.3 Bus2=node_424068852.1.2.3 LineCode=CND_88_3F Length=32.33 Units=m
New Line.243590115 Bus1=node_424067268.1.2.3 Bus2=node_424067269.1.2.3 LineCode=CND_271_3F Length=38.86 Units=m
New Line.246948648 Bus1=node_440706801.1.2.3 Bus2=node_440706802.1.2.3 LineCode=CND_50_3F Length=28.73 Units=m
New Line.2693207416 Bus1=node_441015524.1.2.3 Bus2=node_441015525.1.2.3 LineCode=CND_3_3F Length=13.75 Units=m
New Line.246950311 Bus1=node_441015704.1.2.3 Bus2=node_441015579.1.2.3 LineCode=CND_4_3F Length=30.54 Units=m
New Line.246949334 Bus1=node_440709982.1.2.3 Bus2=node_440710232.1.2.3 LineCode=CND_50_3F Length=35.94 Units=m
New Line.246948426 Bus1=node_437386620.2 Bus2=node_440551108.2 LineCode=CND_909_1F Length=37.57 Units=m
New Line.246948744 Bus1=node_428539338.1.2.3 Bus2=node_440707282.1.2.3 LineCode=CND_50_3F Length=35.20 Units=m
New Line.246413733 Bus1=node_438401362.1.2.3 Bus2=node_438401363.1.2.3 LineCode=CND_20_3F Length=26.62 Units=m
New Line.246951017 Bus1=node_441018660.1.2.3 Bus2=node_441019094.1.2.3 LineCode=CND_10_3F Length=28.29 Units=m
New Line.244491148 Bus1=node_428881384.1.2.3 Bus2=node_428882084.1.2.3 LineCode=CND_19_3F Length=35.24 Units=m
New Line.246414356 Bus1=node_438404493.1.2.3 Bus2=node_438404494.1.2.3 LineCode=CND_20_3F Length=34.48 Units=m
New Line.246948421 Bus1=node_440551082.1.2.3 Bus2=node_440551083.1.2.3 LineCode=CND_3_3F Length=32.19 Units=m
New Line.246948627 Bus1=node_431155382.1.2.3 Bus2=node_440706671.1.2.3 LineCode=CND_20_3F Length=13.68 Units=m
New Line.244490233 Bus1=node_428705736.1.2.3 Bus2=node_428705737.1.2.3 LineCode=CND_19_3F Length=30.89 Units=m
New Line.246948265 Bus1=node_440550293.1.2.3 Bus2=node_440550303.1.2.3 LineCode=CND_10_3F Length=33.05 Units=m
New Line.2555227747 Bus1=node_424067923.1.2.3 Bus2=node_424067922.1.2.3 LineCode=CND_3_3F Length=39.60 Units=m
New Line.244489688 Bus1=node_428539827.1.2.3 Bus2=node_428539132.1.2.3 LineCode=CND_19_3F Length=40.09 Units=m
New Line.860053880 Bus1=node_1128240048.1.2.3 Bus2=node_1128240060.1.2.3 LineCode=CND_10_3F Length=46.99 Units=m
New Line.244490202 Bus1=node_428705342.1.2.3 Bus2=node_428705582.1.2.3 LineCode=CND_19_3F Length=23.02 Units=m
New Line.244489836 Bus1=node_428540571.1.2.3 Bus2=node_428540471.1.2.3 LineCode=CND_19_3F Length=31.71 Units=m
New Line.245836287 Bus1=node_424067659.1.2.3 Bus2=node_434994285.1.2.3 LineCode=CND_88_3F Length=36.88 Units=m
New Line.246948296 Bus1=node_440550457.1.2.3 Bus2=node_440550267.1.2.3 LineCode=CND_50_3F Length=35.00 Units=m
New Line.245836262 Bus1=node_424069876.1.2.3 Bus2=node_434994154.1.2.3 LineCode=CND_4_3F Length=35.48 Units=m
New Line.246195296 Bus1=node_437386385.1.2.3 Bus2=node_437386386.1.2.3 LineCode=CND_19_3F Length=31.61 Units=m
New Line.246950930 Bus1=node_441018799.1.2.3 Bus2=node_441018800.1.2.3 LineCode=CND_20_3F Length=19.11 Units=m
New Line.2539027386 Bus1=node_440865320.1.2.3 Bus2=node_440865321.1.2.3 LineCode=CND_3_3F Length=28.43 Units=m
New Line.246950864 Bus1=node_441018469.1.2.3 Bus2=node_441018394.1.2.3 LineCode=CND_20_3F Length=37.20 Units=m
New Line.244490855 Bus1=node_428880610.1.2.3 Bus2=node_428880611.1.2.3 LineCode=CND_19_3F Length=33.08 Units=m
New Line.246949445 Bus1=node_440710237.1.2.3 Bus2=node_440710066.1.2.3 LineCode=CND_50_3F Length=41.87 Units=m
New Line.246413962 Bus1=node_438402147.1.2.3 Bus2=node_438402512.1.2.3 LineCode=CND_20_3F Length=26.59 Units=m
New Line.246950128 Bus1=node_438402087.1.2.3 Bus2=node_440868794.1.2.3 LineCode=CND_4_3F Length=31.11 Units=m
New Line.244489731 Bus1=node_428540042.1.2.3 Bus2=node_428540043.1.2.3 LineCode=CND_19_3F Length=30.62 Units=m
New Line.246948547 Bus1=node_440706286.1.2.3 Bus2=node_440706297.1.2.3 LineCode=CND_10_3F Length=8.41 Units=m
New Line.246195690 Bus1=node_437590158.1.2.3 Bus2=node_437590178.1.2.3 LineCode=CND_19_3F Length=30.27 Units=m
New Line.2677275076 Bus1=node_435184158.1.2.3 Bus2=node_437589038.1.2.3 LineCode=CND_10_3F Length=7.46 Units=m
New Line.2644987128 Bus1=node_440866625.1.2.3 Bus2=node_2992014951.1.2.3 LineCode=CND_20_3F Length=13.36 Units=m
New Line.2555227709 Bus1=node_424067963.1.2.3 Bus2=node_424067957.1.2.3 LineCode=CND_3_3F Length=32.09 Units=m
New Line.246949517 Bus1=node_440865730.1.2.3 Bus2=node_440865731.1.2.3 LineCode=CND_50_3F Length=29.68 Units=m
New Line.243590454 Bus1=node_424068977.1.2.3 Bus2=node_424068978.1.2.3 LineCode=CND_28_3F Length=33.73 Units=m
New Line.246414044 Bus1=node_438402592.1.2.3 Bus2=node_438402926.1.2.3 LineCode=CND_20_3F Length=34.34 Units=m
New Line.245836586 Bus1=node_435184717.1.2.3 Bus2=node_435184718.1.2.3 LineCode=CND_88_3F Length=25.95 Units=m
New Line.246195637 Bus1=node_437589259.1.2.3 Bus2=node_437589909.1.2.3 LineCode=CND_31_3F Length=33.83 Units=m
New Line.244489628 Bus1=node_1681651075.1.2.3 Bus2=node_428539528.1.2.3 LineCode=CND_3_3F Length=59.58 Units=m
New Line.244489682 Bus1=node_428539797.1.2.3 Bus2=node_428539798.1.2.3 LineCode=CND_19_3F Length=35.17 Units=m
New Line.244489791 Bus1=node_428540153.1.2.3 Bus2=node_428540057.1.2.3 LineCode=CND_19_3F Length=36.73 Units=m
New Line.244489887 Bus1=node_428540826.1.2.3 Bus2=node_428540827.1.2.3 LineCode=CND_19_3F Length=37.10 Units=m
New Line.300453488 Bus1=node_505649037.1.2.3 Bus2=node_441018924.1.2.3 LineCode=CND_220_3F Length=6.17 Units=m
New Line.244490026 Bus1=node_428704684.1.2.3 Bus2=node_428704694.1.2.3 LineCode=CND_19_3F Length=38.65 Units=m
New Line.245836594 Bus1=node_424068539.1.2.3 Bus2=node_435184758.1.2.3 LineCode=CND_253_3F Length=30.22 Units=m
New Line.246413681 Bus1=node_424068634.1.2.3 Bus2=node_438401103.1.2.3 LineCode=CND_20_3F Length=17.12 Units=m
New Line.246950537 Bus1=node_441016834.1.2.3 Bus2=node_441016835.1.2.3 LineCode=CND_50_3F Length=36.90 Units=m
New Line.246948349 Bus1=node_440550593.1.2.3 Bus2=node_440550542.1.2.3 LineCode=CND_50_3F Length=7.50 Units=m
New Line.246950623 Bus1=node_441017264.1.2.3 Bus2=node_441017265.1.2.3 LineCode=CND_50_3F Length=33.23 Units=m
New Line.246949281 Bus1=node_440709966.1.2.3 Bus2=node_440709967.1.2.3 LineCode=CND_50_3F Length=37.07 Units=m
New Line.246949679 Bus1=node_440865961.1.2.3 Bus2=node_440865905.1.2.3 LineCode=CND_10_3F Length=27.16 Units=m
New Line.244987767 Bus1=node_431154948.1.2.3 Bus2=node_431154938.1.2.3 LineCode=CND_20_3F Length=21.02 Units=m
New Line.2693207282 Bus1=node_441015785.1.2.3 Bus2=node_441015910.1.2.3 LineCode=CND_3_3F Length=33.32 Units=m
New Line.244490386 Bus1=node_428706277.1.2.3 Bus2=node_428706456.1.2.3 LineCode=CND_19_3F Length=25.48 Units=m
New Line.246949632 Bus1=node_440866305.2 Bus2=node_428541171.2 LineCode=CND_909_1F Length=27.47 Units=m
New Line.245836735 Bus1=node_424069103.1.2.3 Bus2=node_435185227.1.2.3 LineCode=CND_88_3F Length=22.91 Units=m
New Line.244987762 Bus1=node_431154923.1.2.3 Bus2=node_431154924.1.2.3 LineCode=CND_20_3F Length=41.10 Units=m
New Line.244491594 Bus1=node_428884325.2 Bus2=node_428884326.2 LineCode=CND_902_1F Length=34.35 Units=m
New Line.246413803 Bus1=node_438401698.1.2.3 Bus2=node_438401713.1.2.3 LineCode=CND_20_3F Length=37.99 Units=m
New Line.246949487 Bus1=node_440865580.1.2.3 Bus2=node_440710366.1.2.3 LineCode=CND_50_3F Length=14.66 Units=m
New Line.244489607 Bus1=node_428539422.1.2.3 Bus2=node_428539423.1.2.3 LineCode=CND_19_3F Length=9.77 Units=m
New Line.647874438 Bus1=node_428538843.1.2.3 Bus2=node_916640265.1.2.3 LineCode=CND_19_3F Length=15.44 Units=m
New Line.246948623 Bus1=node_440706597.1.2.3 Bus2=node_440706677.1.2.3 LineCode=CND_3_3F Length=33.64 Units=m
New Line.246950356 Bus1=node_441015929.1.2.3 Bus2=node_441015930.1.2.3 LineCode=CND_50_3F Length=24.51 Units=m
New Line.246949058 Bus1=node_440708237.1.2.3 Bus2=node_440550712.1.2.3 LineCode=CND_50_3F Length=40.32 Units=m
New Line.243590267 Bus1=node_424068032.1.2.3 Bus2=node_424068033.1.2.3 LineCode=CND_4_3F Length=35.53 Units=m
New Line.1737595761 Bus1=node_2064020931.1.2.3 Bus2=node_2064020909.1.2.3 LineCode=CND_20_3F Length=33.36 Units=m
New Line.1144309349 Bus1=node_1414540907.1.2.3 Bus2=node_1414540912.1.2.3 LineCode=CND_20_3F Length=37.09 Units=m
New Line.246948977 Bus1=node_440708446.1.2.3 Bus2=node_440708386.1.2.3 LineCode=CND_50_3F Length=14.29 Units=m
New Line.244490352 Bus1=node_428706331.1.2.3 Bus2=node_428706316.1.2.3 LineCode=CND_19_3F Length=27.94 Units=m
New Line.246949524 Bus1=node_440865765.1.2.3 Bus2=node_440865700.1.2.3 LineCode=CND_50_3F Length=38.30 Units=m
New Line.246949189 Bus1=node_440709482.1.2.3 Bus2=node_440709507.1.2.3 LineCode=CND_20_3F Length=25.04 Units=m
New Line.246950492 Bus1=node_440869154.1.2.3 Bus2=node_441015879.1.2.3 LineCode=CND_50_3F Length=34.57 Units=m
New Line.246950821 Bus1=node_441018205.1.2.3 Bus2=node_441018064.1.2.3 LineCode=CND_50_3F Length=39.07 Units=m
New Line.244489976 Bus1=node_428704443.1.2.3 Bus2=node_428704444.1.2.3 LineCode=CND_19_3F Length=31.03 Units=m
New Line.246413831 Bus1=node_438401852.1.2.3 Bus2=node_438401847.1.2.3 LineCode=CND_20_3F Length=34.13 Units=m
New Line.244986550 Bus1=node_1650575449.1.2.3 Bus2=node_430947004.1.2.3 LineCode=CND_3_3F Length=56.31 Units=m
New Line.246949423 Bus1=node_440865260.1.2.3 Bus2=node_440865261.1.2.3 LineCode=CND_50_3F Length=29.36 Units=m
New Line.246951104 Bus1=node_441019080.1.2.3 Bus2=node_441019179.1.2.3 LineCode=CND_10_3F Length=34.49 Units=m
New Line.246949607 Bus1=node_440551413.1.2.3 Bus2=node_440551042.1.2.3 LineCode=CND_3_3F Length=21.49 Units=m
New Line.246950994 Bus1=node_441019119.2 Bus2=node_441019084.2 LineCode=CND_909_1F Length=24.93 Units=m
New Line.246950656 Bus1=node_431323988.1.2.3 Bus2=node_441017430.1.2.3 LineCode=CND_20_3F Length=12.65 Units=m
New Line.1228235707 Bus1=node_1524986873.1.2.3 Bus2=node_1524986903.1.2.3 LineCode=CND_20_3F Length=30.00 Units=m
New Line.246948675 Bus1=node_440706936.3 Bus2=node_440706937.3 LineCode=CND_909_1F Length=29.00 Units=m
New Line.246195503 Bus1=node_437589109.1.2.3 Bus2=node_437589239.1.2.3 LineCode=CND_19_3F Length=28.95 Units=m
New Line.246948279 Bus1=node_440550372.1.2.3 Bus2=node_440550373.1.2.3 LineCode=CND_10_3F Length=33.36 Units=m
New Line.244987809 Bus1=node_431155162.1.2.3 Bus2=node_431155018.1.2.3 LineCode=CND_20_3F Length=13.25 Units=m
New Line.2091208183 Bus1=node_2403734227.1.2.3 Bus2=node_2403734207.1.2.3 LineCode=CND_20_3F Length=42.88 Units=m
New Line.246195537 Bus1=node_437589408.1.2.3 Bus2=node_437589409.1.2.3 LineCode=CND_31_3F Length=17.98 Units=m
New Line.246195670 Bus1=node_437589914.1.2.3 Bus2=node_437589663.1.2.3 LineCode=CND_31_3F Length=32.97 Units=m
New Line.246414005 Bus1=node_438402726.1.2.3 Bus2=node_438402717.1.2.3 LineCode=CND_20_3F Length=24.15 Units=m
New Line.244489695 Bus1=node_428539862.1.2.3 Bus2=node_428539863.1.2.3 LineCode=CND_19_3F Length=26.48 Units=m
New Line.246950964 Bus1=node_441018145.1.2.3 Bus2=node_441018970.1.2.3 LineCode=CND_4_3F Length=17.75 Units=m
New Line.243590400 Bus1=node_424068684.1.2.3 Bus2=node_424068704.1.2.3 LineCode=CND_28_3F Length=38.85 Units=m
New Line.1111068478 Bus1=node_1380259737.1.2.3 Bus2=node_1380259757.1.2.3 LineCode=CND_10_3F Length=2.27 Units=m
New Line.246950583 Bus1=node_441017025.1.2.3 Bus2=node_441016789.1.2.3 LineCode=CND_50_3F Length=31.14 Units=m
New Line.246951030 Bus1=node_915339222.2 Bus2=node_915339189.2 LineCode=CND_909_1F Length=32.00 Units=m
New Line.244489710 Bus1=node_428539908.1.2.3 Bus2=node_428539182.1.2.3 LineCode=CND_19_3F Length=27.18 Units=m
New Line.243590081 Bus1=node_424067098.1.2.3 Bus2=node_424067078.1.2.3 LineCode=CND_4_3F Length=35.74 Units=m
New Line.246950799 Bus1=node_441018144.1.2.3 Bus2=node_441018145.1.2.3 LineCode=CND_4_3F Length=20.90 Units=m
New Line.246950860 Bus1=node_441018449.3 Bus2=node_441018450.3 LineCode=CND_909_1F Length=31.72 Units=m
New Line.246950938 Bus1=node_441018455.3 Bus2=node_441018589.3 LineCode=CND_909_1F Length=37.69 Units=m
New Line.246195735 Bus1=node_430947317.1.2.3 Bus2=node_437590232.1.2.3 LineCode=CND_31_3F Length=26.32 Units=m
New Line.243590524 Bus1=node_424069327.1.2.3 Bus2=node_424069328.1.2.3 LineCode=CND_28_3F Length=40.71 Units=m
New Line.246413897 Bus1=node_438402186.1.2.3 Bus2=node_424067228.1.2.3 LineCode=CND_20_3F Length=38.34 Units=m
New Line.246948591 Bus1=node_440706516.1.2.3 Bus2=node_440706236.1.2.3 LineCode=CND_50_3F Length=20.34 Units=m
New Line.246950665 Bus1=node_441017275.1.2.3 Bus2=node_435184942.1.2.3 LineCode=CND_50_3F Length=32.86 Units=m
New Line.246949199 Bus1=node_440707247.1.2.3 Bus2=node_440709491.1.2.3 LineCode=CND_50_3F Length=37.48 Units=m
New Line.244490475 Bus1=node_428706946.1.2.3 Bus2=node_428706947.1.2.3 LineCode=CND_19_3F Length=29.49 Units=m
New Line.246413673 Bus1=node_438401062.1.2.3 Bus2=node_438401063.1.2.3 LineCode=CND_20_3F Length=34.63 Units=m
New Line.246948468 Bus1=node_440551317.1.2.3 Bus2=node_440551312.1.2.3 LineCode=CND_50_3F Length=29.08 Units=m
New Line.246950561 Bus1=node_441016954.2 Bus2=node_441016955.2 LineCode=CND_909_1F Length=30.87 Units=m
New Line.1144309276 Bus1=node_1414540842.1.2.3 Bus2=node_1414540987.1.2.3 LineCode=CND_20_3F Length=7.78 Units=m
New Line.246950074 Bus1=node_440868519.1.2.3 Bus2=node_440868520.1.2.3 LineCode=CND_4_3F Length=33.99 Units=m
New Line.246948363 Bus1=node_440550792.1.2.3 Bus2=node_440550767.1.2.3 LineCode=CND_50_3F Length=29.96 Units=m
New Line.245836428 Bus1=node_434994989.1.2.3 Bus2=node_434994990.1.2.3 LineCode=CND_253_3F Length=41.28 Units=m
New Line.246414277 Bus1=node_2039972052.1.2.3 Bus2=node_438404095.1.2.3 LineCode=CND_20_3F Length=30.23 Units=m
New Line.1737594890 Bus1=node_2064019431.1.2.3 Bus2=node_2064019379.1.2.3 LineCode=CND_20_3F Length=46.98 Units=m
New Line.246950138 Bus1=node_440868843.1.2.3 Bus2=node_438402086.1.2.3 LineCode=CND_4_3F Length=21.75 Units=m
New Line.246949616 Bus1=node_440866061.1.2.3 Bus2=node_424067263.1.2.3 LineCode=CND_50_3F Length=41.88 Units=m
New Line.246195343 Bus1=node_437386620.2 Bus2=node_437386621.2 LineCode=CND_902_1F Length=26.94 Units=m
New Line.245836257 Bus1=node_434994130.1.2.3 Bus2=node_434994135.1.2.3 LineCode=CND_253_3F Length=36.17 Units=m
New Line.245836609 Bus1=node_435184703.1.2.3 Bus2=node_435184817.1.2.3 LineCode=CND_88_3F Length=31.02 Units=m
New Line.245836681 Bus1=node_435185158.1.2.3 Bus2=node_424069337.1.2.3 LineCode=CND_88_3F Length=44.18 Units=m
New Line.244987818 Bus1=node_431155207.1.2.3 Bus2=node_431155208.1.2.3 LineCode=CND_20_3F Length=21.44 Units=m
New Line.245836394 Bus1=node_434994819.1.2.3 Bus2=node_434994820.1.2.3 LineCode=CND_4_3F Length=37.50 Units=m
New Line.246950460 Bus1=node_441016449.1.2.3 Bus2=node_441016450.1.2.3 LineCode=CND_4_3F Length=37.51 Units=m
New Line.246950724 Bus1=node_441017769.1.2.3 Bus2=node_441017384.1.2.3 LineCode=CND_20_3F Length=46.05 Units=m
New Line.1249795623 Bus1=node_1547976967.1.2.3 Bus2=node_1547976991.1.2.3 LineCode=CND_20_3F Length=38.96 Units=m
New Line.1144309618 Bus1=node_1414541223.1.2.3 Bus2=node_1414541251.1.2.3 LineCode=CND_20_3F Length=35.03 Units=m
New Line.246950444 Bus1=node_1886676386.1 Bus2=node_441016370.1 LineCode=CND_957_1F Length=59.20 Units=m
New Line.1353757122 Bus1=node_428538507.1.2.3 Bus2=node_1647638750.1.2.3 LineCode=CND_3_3F Length=20.11 Units=m
New Line.246950364 Bus1=node_441015969.1.2.3 Bus2=node_441015970.1.2.3 LineCode=CND_50_3F Length=22.74 Units=m
New Line.246948671 Bus1=node_440706916.1.2.3 Bus2=node_428539097.1.2.3 LineCode=CND_50_3F Length=24.67 Units=m
New Line.246950488 Bus1=node_441016245.1.2.3 Bus2=node_441016064.1.2.3 LineCode=CND_4_3F Length=38.93 Units=m
New Line.2629817939 Bus1=node_428706151.1.2.3 Bus2=node_428706152.1.2.3 LineCode=CND_20_3F Length=29.79 Units=m
New Line.2593543673 Bus1=node_434995040.1.2.3 Bus2=node_434995014.1.2.3 LineCode=CND_3_3F Length=34.89 Units=m
New Line.244490010 Bus1=node_428540138.1.2.3 Bus2=node_428704608.1.2.3 LineCode=CND_11_3F Length=57.43 Units=m
New Line.246414393 Bus1=node_438585026.1.2.3 Bus2=node_428884345.1.2.3 LineCode=CND_20_3F Length=35.77 Units=m
New Line.246948316 Bus1=node_440550363.1.2.3 Bus2=node_440550252.1.2.3 LineCode=CND_50_3F Length=42.98 Units=m
New Line.246414415 Bus1=node_438585140.1.2.3 Bus2=node_438585036.1.2.3 LineCode=CND_20_3F Length=32.21 Units=m
New Line.246949176 Bus1=node_440709412.1.2.3 Bus2=node_440709442.1.2.3 LineCode=CND_50_3F Length=28.85 Units=m
New Line.246948227 Bus1=node_440550112.1.2.3 Bus2=node_440550113.1.2.3 LineCode=CND_20_3F Length=33.36 Units=m
New Line.244491018 Bus1=node_428881433.1.2.3 Bus2=node_428881434.1.2.3 LineCode=CND_19_3F Length=37.07 Units=m
New Line.246414187 Bus1=node_438403640.1.2.3 Bus2=node_438403641.1.2.3 LineCode=CND_20_3F Length=35.52 Units=m
New Line.246949717 Bus1=node_428541061.1 Bus2=node_440866731.1 LineCode=CND_957_1F Length=145.73 Units=m
New Line.246948606 Bus1=node_440706537.1.2.3 Bus2=node_440706592.1.2.3 LineCode=CND_50_3F Length=35.97 Units=m
New Line.244987934 Bus1=node_431155787.1.2.3 Bus2=node_431155788.1.2.3 LineCode=CND_20_3F Length=35.17 Units=m
New Line.886749729 Bus1=node_1151637984.1.2.3 Bus2=node_1151638004.1.2.3 LineCode=CND_10_3F Length=31.36 Units=m
New Line.244988048 Bus1=node_431323819.1.2.3 Bus2=node_431323824.1.2.3 LineCode=CND_20_3F Length=26.52 Units=m
New Line.246414274 Bus1=node_438403945.1.2.3 Bus2=node_438404074.1.2.3 LineCode=CND_20_3F Length=37.56 Units=m
New Line.769222951 Bus1=node_1042257115.1.2.3 Bus2=node_1042257126.1.2.3 LineCode=CND_20_3F Length=37.78 Units=m
New Line.246948531 Bus1=node_440706211.1.2.3 Bus2=node_440706217.1.2.3 LineCode=CND_50_3F Length=37.13 Units=m
New Line.246950890 Bus1=node_441018460.1.2.3 Bus2=node_441018389.1.2.3 LineCode=CND_10_3F Length=30.84 Units=m
New Line.246950239 Bus1=node_424068356.1.2.3 Bus2=node_441015345.1.2.3 LineCode=CND_4_3F Length=45.59 Units=m
New Line.246949711 Bus1=node_440866700.1 Bus2=node_440866645.1 LineCode=CND_957_1F Length=90.65 Units=m
New Line.244490765 Bus1=node_428708400.3 Bus2=node_428708370.3 LineCode=CND_907_1F Length=156.72 Units=m
New Line.1061038839 Bus1=node_437590453.1.2.3 Bus2=node_1327833742.1.2.3 LineCode=CND_10_3F Length=33.69 Units=m
New Line.246414170 Bus1=node_431155508.1.2.3 Bus2=node_438403515.1.2.3 LineCode=CND_20_3F Length=43.45 Units=m
New Line.246195719 Bus1=node_437590322.1.2.3 Bus2=node_428708385.1.2.3 LineCode=CND_31_3F Length=2.97 Units=m
New Line.244490279 Bus1=node_428705952.1.2.3 Bus2=node_428705967.1.2.3 LineCode=CND_19_3F Length=32.04 Units=m
New Line.246948336 Bus1=node_440550588.1.2.3 Bus2=node_440550632.1.2.3 LineCode=CND_10_3F Length=31.85 Units=m
New Line.246948510 Bus1=node_440706111.1.2.3 Bus2=node_440551462.1.2.3 LineCode=CND_50_3F Length=24.31 Units=m
New Line.2593542814 Bus1=node_2764857365.1.2.3 Bus2=node_2764857306.1.2.3 LineCode=CND_405_3F Length=13.24 Units=m
New Line.246950333 Bus1=node_441015570.1.2.3 Bus2=node_428706046.1.2.3 LineCode=CND_4_3F Length=10.96 Units=m
New Line.244490249 Bus1=node_428705816.1.2.3 Bus2=node_428705736.1.2.3 LineCode=CND_19_3F Length=31.22 Units=m
New Line.246948625 Bus1=node_440706637.1.2.3 Bus2=node_440706687.1.2.3 LineCode=CND_50_3F Length=28.67 Units=m
New Line.244489847 Bus1=node_428540626.1.2.3 Bus2=node_428540627.1.2.3 LineCode=CND_19_3F Length=29.83 Units=m
...
